INIT MASTER(S)
NASTRAN SYSTEM(319)=1
ID pyBeam,Femap
SOL NLSTATIC
TIME 10000
CEND
  TITLE = MSC/MD Nastran NL Static Analysis Set
  ECHO = NONE
  DISPLACEMENT(PUNCH) = ALL
  SPCFORCE(PLOT) = ALL
  FORCE(PLOT,CORNER) = ALL
  NLSTRESS(PLOT) = ALL
  STRESS(PLOT,CORNER) = ALL
  SPC = 1
  NLPARM = 1  
  LOAD = 1
BEGIN BULK
$ ***************************************************************************
$   Written by : Femap with NX Nastran
$   Version    : 10.3.1
$   Translator : MSC/MD Nastran
$   From Model : E:\Adjoint_project\Validation\NASTRAN\pyBeam.modfem
$   Date       : Mon Mar 11 14:16:09 2019
$ ***************************************************************************
$
$       $       $       $       $       $       $       $       $   
NLPARM         1      40            AUTO             200       W     YES+       
+                           1.-7                                        +       
+           
PARAM,LGDISP,1
PARAM,POST,-1
PARAM,OGEOM,NO
PARAM,AUTOSPC,YES
PARAM,GRDPNT,0
$ Femap with NX Nastran Load Set 1 : Untitled    
$
$       $       $       $       $       $       $       $       $
FORCE          1       1       0 1.00000 0.00013 0.00004 0.00114

$       $       $       $       $       $       $       $       $
FORCE          1       2       0 1.00000 0.00010 0.00003 0.00122

$       $       $       $       $       $       $       $       $
FORCE          1       3       0 1.00000 0.00009 0.00002 0.00129

$       $       $       $       $       $       $       $       $
FORCE          1       4       0 1.00000 0.00007 0.00001 0.00135

$       $       $       $       $       $       $       $       $
FORCE          1       5       0 1.00000 0.00005 0.00000 0.00139

$       $       $       $       $       $       $       $       $
FORCE          1       6       0 1.00000 0.00004 0.00000 0.00142

$       $       $       $       $       $       $       $       $
FORCE          1       7       0 1.00000 0.00002 0.00000 0.00143

$       $       $       $       $       $       $       $       $
FORCE          1       8       0 1.00000 0.00001 0.00000 0.00144

$       $       $       $       $       $       $       $       $
FORCE          1       9       0 1.00000-0.00000 0.00001 0.00143

$       $       $       $       $       $       $       $       $
FORCE          1      10       0 1.00000-0.00001 0.00002 0.00141

$       $       $       $       $       $       $       $       $
FORCE          1      11       0 1.00000-0.00002 0.00003 0.00137

$       $       $       $       $       $       $       $       $
FORCE          1      12       0 1.00000-0.00003 0.00004 0.00132

$       $       $       $       $       $       $       $       $
FORCE          1      13       0 1.00000-0.00004 0.00006 0.00126

$       $       $       $       $       $       $       $       $
FORCE          1      14       0 1.00000-0.00004 0.00008 0.00119

$       $       $       $       $       $       $       $       $
FORCE          1      15       0 1.00000-0.00005 0.00010 0.00110

$       $       $       $       $       $       $       $       $
FORCE          1      16       0 1.00000-0.00005 0.00012 0.00100

$       $       $       $       $       $       $       $       $
FORCE          1      17       0 1.00000-0.00005 0.00015 0.00089

$       $       $       $       $       $       $       $       $
FORCE          1      18       0 1.00000-0.00005 0.00018 0.00076

$       $       $       $       $       $       $       $       $
FORCE          1      19       0 1.00000-0.00005 0.00021 0.00063

$       $       $       $       $       $       $       $       $
FORCE          1      20       0 1.00000-0.00005 0.00024 0.00048

$       $       $       $       $       $       $       $       $
FORCE          1      21       0 1.00000 0.00014-0.00006 0.00153

$       $       $       $       $       $       $       $       $
FORCE          1      22       0 1.00000 0.00011-0.00006 0.00167

$       $       $       $       $       $       $       $       $
FORCE          1      23       0 1.00000 0.00009-0.00006 0.00179

$       $       $       $       $       $       $       $       $
FORCE          1      24       0 1.00000 0.00006-0.00005 0.00189

$       $       $       $       $       $       $       $       $
FORCE          1      25       0 1.00000 0.00004-0.00005 0.00198

$       $       $       $       $       $       $       $       $
FORCE          1      26       0 1.00000 0.00002-0.00004 0.00206

$       $       $       $       $       $       $       $       $
FORCE          1      27       0 1.00000-0.00000-0.00003 0.00212

$       $       $       $       $       $       $       $       $
FORCE          1      28       0 1.00000-0.00002-0.00002 0.00216

$       $       $       $       $       $       $       $       $
FORCE          1      29       0 1.00000-0.00004-0.00000 0.00218

$       $       $       $       $       $       $       $       $
FORCE          1      30       0 1.00000-0.00005 0.00001 0.00219

$       $       $       $       $       $       $       $       $
FORCE          1      31       0 1.00000-0.00007 0.00003 0.00219

$       $       $       $       $       $       $       $       $
FORCE          1      32       0 1.00000-0.00008 0.00005 0.00216

$       $       $       $       $       $       $       $       $
FORCE          1      33       0 1.00000-0.00009 0.00008 0.00213

$       $       $       $       $       $       $       $       $
FORCE          1      34       0 1.00000-0.00010 0.00010 0.00207

$       $       $       $       $       $       $       $       $
FORCE          1      35       0 1.00000-0.00011 0.00013 0.00200

$       $       $       $       $       $       $       $       $
FORCE          1      36       0 1.00000-0.00011 0.00016 0.00192

$       $       $       $       $       $       $       $       $
FORCE          1      37       0 1.00000-0.00012 0.00019 0.00181

$       $       $       $       $       $       $       $       $
FORCE          1      38       0 1.00000-0.00012 0.00022 0.00170

$       $       $       $       $       $       $       $       $
FORCE          1      39       0 1.00000-0.00012 0.00026 0.00156

$       $       $       $       $       $       $       $       $
FORCE          1      40       0 1.00000-0.00012 0.00030 0.00141

$       $       $       $       $       $       $       $       $
FORCE          1      41       0 1.00000-0.00002 0.00008 0.00032

$       $       $       $       $       $       $       $       $
FORCE          1      42       0 1.00000-0.00002 0.00005 0.00033

$       $       $       $       $       $       $       $       $
FORCE          1      43       0 1.00000-0.00002 0.00003 0.00032

$       $       $       $       $       $       $       $       $
FORCE          1      44       0 1.00000-0.00003 0.00001 0.00031

$       $       $       $       $       $       $       $       $
FORCE          1      45       0 1.00000-0.00003-0.00001 0.00030

$       $       $       $       $       $       $       $       $
FORCE          1      46       0 1.00000-0.00003-0.00002 0.00027

$       $       $       $       $       $       $       $       $
FORCE          1      47       0 1.00000-0.00003-0.00003 0.00023

$       $       $       $       $       $       $       $       $
FORCE          1      48       0 1.00000-0.00003-0.00004 0.00019

$       $       $       $       $       $       $       $       $
FORCE          1      49       0 1.00000-0.00003-0.00005 0.00014

$       $       $       $       $       $       $       $       $
FORCE          1      50       0 1.00000-0.00003-0.00005 0.00007

$       $       $       $       $       $       $       $       $
FORCE          1      51       0 1.00000-0.00003-0.00004 0.00001

$       $       $       $       $       $       $       $       $
FORCE          1      52       0 1.00000-0.00002-0.00004-0.00007

$       $       $       $       $       $       $       $       $
FORCE          1      53       0 1.00000-0.00002-0.00003-0.00016

$       $       $       $       $       $       $       $       $
FORCE          1      54       0 1.00000-0.00002-0.00002-0.00025

$       $       $       $       $       $       $       $       $
FORCE          1      55       0 1.00000-0.00001-0.00000-0.00036

$       $       $       $       $       $       $       $       $
FORCE          1      56       0 1.00000-0.00001 0.00002-0.00047

$       $       $       $       $       $       $       $       $
FORCE          1      57       0 1.00000-0.00000 0.00004-0.00059

$       $       $       $       $       $       $       $       $
FORCE          1      58       0 1.00000 0.00000 0.00007-0.00072

$       $       $       $       $       $       $       $       $
FORCE          1      59       0 1.00000 0.00001 0.00009-0.00086

$       $       $       $       $       $       $       $       $
FORCE          1      60       0 1.00000 0.00002 0.00013-0.00100

$       $       $       $       $       $       $       $       $
FORCE          1      61       0 1.00000-0.00000 0.00015 0.00628

$       $       $       $       $       $       $       $       $
FORCE          1      62       0 1.00000-0.00003 0.00014 0.00627

$       $       $       $       $       $       $       $       $
FORCE          1      63       0 1.00000-0.00004 0.00013 0.00624

$       $       $       $       $       $       $       $       $
FORCE          1      64       0 1.00000-0.00006 0.00012 0.00621

$       $       $       $       $       $       $       $       $
FORCE          1      65       0 1.00000-0.00008 0.00011 0.00615

$       $       $       $       $       $       $       $       $
FORCE          1      66       0 1.00000-0.00009 0.00011 0.00609

$       $       $       $       $       $       $       $       $
FORCE          1      67       0 1.00000-0.00011 0.00011 0.00601

$       $       $       $       $       $       $       $       $
FORCE          1      68       0 1.00000-0.00012 0.00011 0.00591

$       $       $       $       $       $       $       $       $
FORCE          1      69       0 1.00000-0.00013 0.00012 0.00580

$       $       $       $       $       $       $       $       $
FORCE          1      70       0 1.00000-0.00014 0.00012 0.00568

$       $       $       $       $       $       $       $       $
FORCE          1      71       0 1.00000-0.00015 0.00013 0.00554

$       $       $       $       $       $       $       $       $
FORCE          1      72       0 1.00000-0.00016 0.00014 0.00539

$       $       $       $       $       $       $       $       $
FORCE          1      73       0 1.00000-0.00016 0.00016 0.00522

$       $       $       $       $       $       $       $       $
FORCE          1      74       0 1.00000-0.00016 0.00017 0.00504

$       $       $       $       $       $       $       $       $
FORCE          1      75       0 1.00000-0.00017 0.00019 0.00485

$       $       $       $       $       $       $       $       $
FORCE          1      76       0 1.00000-0.00017 0.00022 0.00464

$       $       $       $       $       $       $       $       $
FORCE          1      77       0 1.00000-0.00017 0.00024 0.00442

$       $       $       $       $       $       $       $       $
FORCE          1      78       0 1.00000-0.00016 0.00027 0.00418

$       $       $       $       $       $       $       $       $
FORCE          1      79       0 1.00000-0.00016 0.00030 0.00393

$       $       $       $       $       $       $       $       $
FORCE          1      80       0 1.00000-0.00016 0.00033 0.00367

$       $       $       $       $       $       $       $       $
FORCE          1      81       0 1.00000 0.00026-0.00007-0.00399

$       $       $       $       $       $       $       $       $
FORCE          1      82       0 1.00000 0.00024-0.00008-0.00382

$       $       $       $       $       $       $       $       $
FORCE          1      83       0 1.00000 0.00022-0.00009-0.00366

$       $       $       $       $       $       $       $       $
FORCE          1      84       0 1.00000 0.00020-0.00010-0.00351

$       $       $       $       $       $       $       $       $
FORCE          1      85       0 1.00000 0.00018-0.00011-0.00338

$       $       $       $       $       $       $       $       $
FORCE          1      86       0 1.00000 0.00016-0.00011-0.00325

$       $       $       $       $       $       $       $       $
FORCE          1      87       0 1.00000 0.00015-0.00011-0.00314

$       $       $       $       $       $       $       $       $
FORCE          1      88       0 1.00000 0.00014-0.00010-0.00304

$       $       $       $       $       $       $       $       $
FORCE          1      89       0 1.00000 0.00012-0.00010-0.00295

$       $       $       $       $       $       $       $       $
FORCE          1      90       0 1.00000 0.00011-0.00009-0.00287

$       $       $       $       $       $       $       $       $
FORCE          1      91       0 1.00000 0.00010-0.00007-0.00280

$       $       $       $       $       $       $       $       $
FORCE          1      92       0 1.00000 0.00009-0.00006-0.00274

$       $       $       $       $       $       $       $       $
FORCE          1      93       0 1.00000 0.00008-0.00004-0.00270

$       $       $       $       $       $       $       $       $
FORCE          1      94       0 1.00000 0.00008-0.00002-0.00267

$       $       $       $       $       $       $       $       $
FORCE          1      95       0 1.00000 0.00007 0.00000-0.00265

$       $       $       $       $       $       $       $       $
FORCE          1      96       0 1.00000 0.00007 0.00003-0.00264

$       $       $       $       $       $       $       $       $
FORCE          1      97       0 1.00000 0.00006 0.00006-0.00264

$       $       $       $       $       $       $       $       $
FORCE          1      98       0 1.00000 0.00006 0.00009-0.00265

$       $       $       $       $       $       $       $       $
FORCE          1      99       0 1.00000 0.00006 0.00012-0.00268

$       $       $       $       $       $       $       $       $
FORCE          1     100       0 1.00000 0.00006 0.00016-0.00271
$
CORD2C         1       0      0.      0.      0.      0.      0.      1.+FEMAPC1
+FEMAPC1      1.      0.      1.
CORD2S         2       0      0.      0.      0.      0.      0.      1.+FEMAPC2
+FEMAPC2      1.      0.      1.
MAT1           1    7.+5             .33  2.78-6      0.      0.        
$.      $.      $.      $.      $.      $.      $.      $.      $.      $.      

PBEAM          1       1 .6659-32.4007-55.9835-7      0.2.0991-6      0.+       
+             0.      0.      0.      0.      0.      0.      0.      0.+       
+           YESA      1.                                                +       
+             0.      0.
$       $       $       $       $       $       $       $       $   
PBEAM          2       1.54295-31.3011-53.2720-7      0.1.1471-6      0.+       
+             0.      0.      0.      0.      0.      0.      0.      0.+       
+           YESA      1.                                                +       
+             0.      0.
$       $       $       $       $       $       $       $       $   
PBEAM          3       1 .3747-34.2781-61.0583-7      0.3.7147-7      0.+       
+             0.      0.      0.      0.      0.      0.      0.      0.+       
+           YESA      1.                                                +       
+             0.      0.
SPC1           1  123456       1
$
INCLUDE 'CBEAM_STIFF_PLUS.bdf'
$
$       $       $       $       $       $       $       $       $
GRID           1       0 0.32236 0.00000 0.00000       0
GRID           2       0 0.35129 0.06296 0.00000       0
GRID           3       0 0.38022 0.12593 0.00000       0
GRID           4       0 0.40914 0.18889 0.00000       0
GRID           5       0 0.43807 0.25185 0.00000       0
GRID           6       0 0.46700 0.31482 0.00000       0
GRID           7       0 0.49593 0.37778 0.00000       0
GRID           8       0 0.52485 0.44074 0.00000       0
GRID           9       0 0.55378 0.50371 0.00000       0
GRID          10       0 0.58271 0.56667 0.00000       0
GRID          11       0 0.61164 0.62963 0.00000       0
GRID          12       0 0.64057 0.69259 0.00000       0
GRID          13       0 0.66949 0.75556 0.00000       0
GRID          14       0 0.69842 0.81852 0.00000       0
GRID          15       0 0.72735 0.88148 0.00000       0
GRID          16       0 0.75628 0.94445 0.00000       0
GRID          17       0 0.78521 1.00741 0.00000       0
GRID          18       0 0.81413 1.07037 0.00000       0
GRID          19       0 0.84306 1.13334 0.00000       0
GRID          20       0 0.87199 1.19630 0.00000       0
$ ... 80 like lines cut

CBEAM          1       1       1       2 1.00000 0.00000 0.00000
CBEAM          2       1       2       3 1.00000 0.00000 0.00000
CBEAM          3       1       3       4 1.00000 0.00000 0.00000
CBEAM          4       1       4       5 1.00000 0.00000 0.00000
CBEAM          5       1       5       6 1.00000 0.00000 0.00000
CBEAM          6       1       6       7 1.00000 0.00000 0.00000
CBEAM          7       1       7       8 1.00000 0.00000 0.00000
CBEAM          8       2       8       9 1.00000 0.00000 0.00000
CBEAM          9       2       9      10 1.00000 0.00000 0.00000
CBEAM         10       2      10      11 1.00000 0.00000 0.00000
CBEAM         11       2      11      12 1.00000 0.00000 0.00000
CBEAM         12       2      12      13 1.00000 0.00000 0.00000
CBEAM         13       2      13      14 1.00000 0.00000 0.00000
CBEAM         14       2      14      15 1.00000 0.00000 0.00000
CBEAM         15       3      15      16 1.00000 0.00000 0.00000
CBEAM         16       3      16      17 1.00000 0.00000 0.00000
CBEAM         17       3      17      18 1.00000 0.00000 0.00000
CBEAM         18       3      18      19 1.00000 0.00000 0.00000
CBEAM         19       3      19      20 1.00000 0.00000 0.00000



ENDDATA 561e0668
