INIT MASTER(S)
NASTRAN SYSTEM(319)=1
ID pyBeam,Femap
SOL NLSTATIC
TIME 10000
CEND
  TITLE = MSC/MD Nastran NL Static Analysis Set
  ECHO = NONE
  DISPLACEMENT(PUNCH) = ALL
  SPCFORCE(PLOT) = ALL
  FORCE(PLOT,CORNER) = ALL
  NLSTRESS(PLOT) = ALL
  STRESS(PLOT,CORNER) = ALL
  SPC = 1
  NLPARM = 1  
  LOAD = 1
BEGIN BULK
$ ***************************************************************************
$   Written by : Femap with NX Nastran
$   Version    : 10.3.1
$   Translator : MSC/MD Nastran
$   From Model : E:\Adjoint_project\Validation\NASTRAN\pyBeam.modfem
$   Date       : Mon Mar 11 14:16:09 2019
$ ***************************************************************************
$
$       $       $       $       $       $       $       $       $   
NLPARM         1      25            AUTO             200       W     YES+       
+                           1.-7                                        +       
+           
PARAM,LGDISP,1
PARAM,POST,-1
PARAM,OGEOM,NO
PARAM,AUTOSPC,YES
PARAM,GRDPNT,0
$ Femap with NX Nastran Load Set 1 : Untitled    
FORCE          1      40       0 1.00000  0.8000 0.00000    0.08
CORD2C         1       0      0.      0.      0.      0.      0.      1.+FEMAPC1
+FEMAPC1      1.      0.      1.
CORD2S         2       0      0.      0.      0.      0.      0.      1.+FEMAPC2
+FEMAPC2      1.      0.      1.
MAT1           1    7.+5             .33  2.78-6      0.      0.        
$.      $.      $.      $.      $.      $.      $.      $.      $.      $.      

PBEAM          1       1 .6659-32.4007-55.9835-7      0.2.0991-6      0.+       
+             0.      0.      0.      0.      0.      0.      0.      0.+       
+           YESA      1.                                                +       
+             0.      0.
$       $       $       $       $       $       $       $       $   
PBEAM          2       1.54295-31.3011-53.2720-7      0.1.1471-6      0.+       
+             0.      0.      0.      0.      0.      0.      0.      0.+       
+           YESA      1.                                                +       
+             0.      0.
$       $       $       $       $       $       $       $       $   
PBEAM          3       1 .3747-34.2781-61.0583-7      0.3.7147-7      0.+       
+             0.      0.      0.      0.      0.      0.      0.      0.+       
+           YESA      1.                                                +       
+             0.      0.
SPC1           1  123456       1

$       $       $       $       $       $       $       $       $
GRID           1       0 0.32236 0.00000 0.00000       0
GRID           2       0 0.35129 0.06296 0.00000       0
GRID           3       0 0.38022 0.12593 0.00000       0
GRID           4       0 0.40914 0.18889 0.00000       0
GRID           5       0 0.43807 0.25185 0.00000       0
GRID           6       0 0.46700 0.31482 0.00000       0
GRID           7       0 0.49593 0.37778 0.00000       0
GRID           8       0 0.52485 0.44074 0.00000       0
GRID           9       0 0.55378 0.50371 0.00000       0
GRID          10       0 0.58271 0.56667 0.00000       0
GRID          11       0 0.61164 0.62963 0.00000       0
GRID          12       0 0.64057 0.69259 0.00000       0
GRID          13       0 0.66949 0.75556 0.00000       0
GRID          14       0 0.69842 0.81852 0.00000       0
GRID          15       0 0.72735 0.88148 0.00000       0
GRID          16       0 0.75628 0.94445 0.00000       0
GRID          17       0 0.78521 1.00741 0.00000       0
GRID          18       0 0.81413 1.07037 0.00000       0
GRID          19       0 0.84306 1.13334 0.00000       0
GRID          20       0 0.87199 1.19630 0.00000       0
$ ... 80 like lines cut

CBEAM          1       1       1       2 1.00000 0.00000 0.00000
CBEAM          2       1       2       3 1.00000 0.00000 0.00000
CBEAM          3       1       3       4 1.00000 0.00000 0.00000
CBEAM          4       1       4       5 1.00000 0.00000 0.00000
CBEAM          5       1       5       6 1.00000 0.00000 0.00000
CBEAM          6       1       6       7 1.00000 0.00000 0.00000
CBEAM          7       1       7       8 1.00000 0.00000 0.00000
CBEAM          8       2       8       9 1.00000 0.00000 0.00000
CBEAM          9       2       9      10 1.00000 0.00000 0.00000
CBEAM         10       2      10      11 1.00000 0.00000 0.00000
CBEAM         11       2      11      12 1.00000 0.00000 0.00000
CBEAM         12       2      12      13 1.00000 0.00000 0.00000
CBEAM         13       2      13      14 1.00000 0.00000 0.00000
CBEAM         14       2      14      15 1.00000 0.00000 0.00000
CBEAM         15       3      15      16 1.00000 0.00000 0.00000
CBEAM         16       3      16      17 1.00000 0.00000 0.00000
CBEAM         17       3      17      18 1.00000 0.00000 0.00000
CBEAM         18       3      18      19 1.00000 0.00000 0.00000
CBEAM         19       3      19      20 1.00000 0.00000 0.00000

RBE2          20       1  123456      21
RBE2          21       1  123456      41
RBE2          22       1  123456      61
RBE2          23       1  123456      81
RBE2          24       2  123456      22
RBE2          25       2  123456      42
RBE2          26       2  123456      62
RBE2          27       2  123456      82
RBE2          28       3  123456      23
RBE2          29       3  123456      43
RBE2          30       3  123456      63
RBE2          31       3  123456      83
RBE2          32       4  123456      24
RBE2          33       4  123456      44
RBE2          34       4  123456      64
RBE2          35       4  123456      84
RBE2          36       5  123456      25
RBE2          37       5  123456      45
RBE2          38       5  123456      65
RBE2          39       5  123456      85
$ ... 60 like lines cut

ENDDATA 561e0668
