INIT MASTER(S)
NASTRAN SYSTEM(442)=-1, SYSTEM(319)=1
ID pyBeam,Femap
SOL SESTATIC
TIME 10000
CEND
  TITLE = NX Nastran Static Analysis Set
  ECHO = NONE
  DISPLACEMENT(PUNCH) = ALL
  SPCFORCE(PLOT) = ALL
  OLOAD(PLOT) = ALL
  FORCE(PLOT,CORNER) = ALL
  STRESS(PLOT,CORNER) = ALL
  SPC = 1
  LOAD = 1
BEGIN BULK
$ ***************************************************************************
$   Written by : Femap with NX Nastran
$   Version    : 10.3.1
$   Translator : NX Nastran
$   From Model : E:\Adjoint_project\Validation\NASTRAN\pyBeam.modfem
$   Date       : Mon Mar 11 14:13:44 2019
$ ***************************************************************************
$
PARAM,POST,-1
PARAM,OGEOM,NO
PARAM,AUTOSPC,YES
PARAM,K6ROT,100.
PARAM,GRDPNT,0
CORD2C         1       0      0.      0.      0.      0.      0.      1.+FEMAPC1
+FEMAPC1      1.      0.      1.
CORD2S         2       0      0.      0.      0.      0.      0.      1.+FEMAPC2
+FEMAPC2      1.      0.      1.
$ Femap with NX Nastran Load Set 1 : Untitled
FORCE          1       3       0      1.   0.      0.  50000000.
$ Femap with NX Nastran Constraint Set 1 : Untitled
SPC1           1  123456       1
$ Femap with NX Nastran Property 1 : BEAM Property
PBEAM          1       1    .0162.6933-53.5333-4      0.3.8027-4      0.+       
+             0.      0.      0.      0.      0.      0.      0.      0.+       
+           YESA      1.                                                +       
+             0.      0.                                                        
$ Femap with NX Nastran Material 1 : ISOTROPIC Material
MAT1           1   7.+10              .3   2700.      0.      0.        
GRID           1       0      0.      0.      0.       0
GRID           2       0     0.3      0.      0.       0
GRID           3       0     0.3     0.3      0.       0
CBEAM          1       1       1       2      0.      1.      0.
RBE2           2       2  123456       3
ENDDATA 396b9f55
